LAMMPS (29 Oct 2020)
print " "

print "### Simulation de milieux granulaire ###"
### Simulation de milieux granulaire ###
print " "

print "## Initialisation -------------------------------------------------------------------------------------------- ##"
## Initialisation -------------------------------------------------------------------------------------------- ##
print " "

    include in.floes_initialisation_v1.lmp # initialise la simulation
## Paramètre de simulations -------------------------------------------------------------------------------------------------- ##
    # fichier partagé #
    # paramètres de simulation
	dimension    2 # Probleme 2D
    boundary     p fm p # Condition aux limites, f condition fixe, p condition périodique

	atom_style   sphere 0 # Les particules seront des sphères (besoin de definir diamètre et masse pour chaque particule)
	newton       off # off = pas d'action/réaction
	comm_modify  vel yes

    # géométrie
	region boite block 0 100 0 100 -0.5 0.5 units box # Crée la région "boite" 100x100x1
	create_box   2 boite # Crée la "boite" avec 3 type de grains
Created orthogonal box = (0.0000000 0.0000000 -0.5) to (100.00000 100.00000 0.5)

	neighbor     0.2 bin # Fréquence de mise a jour de la liste des particules
	neigh_modify delay 0 #Fréquence de mise a jour de la liste des particules tout les 0 pas

    # région de l'échantillon
    region limite_sup    block INF INF 93 INF INF INF # crée une région pour la limite supérieur échantillon (cf : in.floes_shearing.lmp)
    region limite_inf    block INF INF INF 7 INF INF # crée une région pour la limite inferieur échantillon (cf : in.floes_shearing.lmp)
    region zone_de_chute block 0 100 89 100 -0.5 0.5 units box # crée une région depuis laquelle les grains vont tomber

    # Variable du problème
    variable nbr_grain equal 809
    variable dmax equal 4.0
    variable dmin equal 3.0

## Fin initilisation----------------------------------------------------------------------------------------------------------- ##

print " "

print "## Depot des grains ------------------------------------------------------------------------------------------ ##"
## Depot des grains ------------------------------------------------------------------------------------------ ##
print " "

    include     in.floes_pour_v1.lmp # dépose des sphères dans la boite de simulation
### Depot de matériaux granulaire en 2D ###

## Definition interaction entre particules ------------------------------------------------------------------------------------ ##
# arg : contact normal, contact tangentiel, amortissement normal, amortissement tangentiel, coefficient de charge, 0 pour exclure gamma_t
	pair_style  gran/hooke/history 1E8 0.0 1E3 0.0 0.5 0 # contact Hookien entre particule sans friction
	pair_coeff	* *

## Simulation de la chute des grains ------------------------------------------------------------------------------------------ ##

    fix	gravite all gravity 1.0 spherical 0.0 -180.0 # ajoute la gravitée à la simulation

    # Ajout de reaction normal sur la paroi paroie_y et plan_y
    fix	        paroiy all wall/gran hooke/history 1E8 0.0 1E4 0.0 0.5 0                 yplane 0 NULL

    timestep    1E-4 # pas de temps de la simulation

    fix         calcul_v_m all nve/sphere disc # Calcule vélocité et moment angulaire de chaque sphère

# Fait tomber N grains un par un, vol specifie la fraction volumique (max 0.6), one d unique / range d dans un intervale
    fix         depot all pour 860 1 100 vol 0.5 10                 diam poly 2 3.0 0.5 4.0 0.5 region zone_de_chute
Particle insertion: 56 every 46904 steps, 860 by step 703561

    fix         2Dsimu all enforce2d # Assure une simulation 2D en annulantles forces/vitesse dans la direction z

## Commande d'affichage -------------------------------------------------------------------------------------------------------- ##

    #dump		depot_img all image 500000 depot.*.jpg type type     #            zoom 1.6 adiam 4.0
    #dump_modify	depot_img pad 5

    #dump        depot_grain all movie 500 depot_grain.avi type type     #            zoom 1.6 adiam 4.0 # crée une vidéo du dépot des grains
    #dump_modify depot_grain pad 5

## Fin du dépot des particules -------------------------------------------------------------------------------------------------- ##

    run	        1500000 # 1 500 000 pas de simulations effectués
  update every 1 steps, delay 0 steps, check yes
Step Temp E_pair E_mol TotEng Press Volume
0            0            0            0            0            0        10000
Loop time of 318.8 on 1 procs for 1500000 steps with 829 atoms

#fin du programme

    set         group all density/disc 1.0 # densité des particules = 1 (longueur^3)
Setting atom values ...
  829 settings made for density/disc

print " "

print "## Compression echantillon ----------------------------------------------------------------------------------- ##"
## Compression echantillon ----------------------------------------------------------------------------------- ##
print " "

# Unfix - retire les propriétés fixés dans le module précedent pour en fixer de nouvelles dans le module suivant
    unfix       2Dsimu
    unfix       paroiy # enlève les propriétés mécanique des paroies
    unfix       depot # annule le dépot des grains dmin
    unfix       gravite # annule l'effet de la gravité
    unfix       calcul_v_m # annule l'intégration temporel des grains

# Undump - arrête les affichages
    #undump      depot_grain

# Compression de l'assemblage granulaire
    include     in.floes_compression_force_v1.lmp # compression uniaxial de l'échantillon par application de force
### Compression unixial de matériaux granulaires ###

## Modification des conditions aux limites ------------------------------------------------------------------------------------ ##

    change_box  all boundary p p p units box # change les conditions limites pour comprimer l'échantillon avec un barostat
Changing box ...
    set         group all image NULL NULL NULL  # repositionne les grains avec les nouvelles conditions limites
Setting atom values ...
  829 settings made for image

## Fix pour compression unixial ----------------------------------------------------------------------------------------------- ##

    # Début de simulation
    timestep    1E-4 # pas de temps de la simulation

    fix         temp_cste all temp/berendsen 0.0 0.0 200 # définie une température constante durant la simulation
    fix         calcul_v_m all nve/sphere disc # calcul vélocité et moment angulaire de chaque sphère

    fix         sur_amortissement all viscous 1.0 # ajout d'une force visqueuse dans l'échantillon

    fix         comp_biax all press/berendsen                 iso 5E3 5E3 500 # compression biaxiale échantillon via un barostat p = 50.0

    fix         2Dsimu all enforce2d # Assure une simulation 2D en annulant les forces/vitesse dans la direction z

## Calculs -------------------------------------------------------------------------------------------------------------------- ##

    #Calcul des contraintes dans les floes
    compute     sigma_comp all stress/atom NULL virial # calcul les contraintes dans les floes
    compute     moy_sigma_comp all reduce sum c_sigma_comp[*] # somme le tenseur de contrainte sur l'ensemble des floes

    # Calcul des voisins
    compute      voisin all contact/atom # calcul les voisins situé à d = dmin du centre d'un grain
    compute      moy_voisin all reduce ave c_voisin # moyenne du nombres de voisins

    # Déplacement des grains et des bords rigides
    compute      u_comp all displace/atom
    compute      u_moy_comp all reduce ave c_u_comp[*][*]

## Affichage ------------------------------------------------------------------------------------------------------------------- ##

    # affichage : pas_de_temps/température_échantillon/ID_grain/nbre_voisin/nrj_total_échantillon/pression_appliquée/contrainte xx,xy,yy
    thermo      5000 # affichage tout les 50 000 pas de temps
    thermo_style custom step atoms c_moy_voisin                  density press ke c_u_moy_comp[1] c_u_moy_comp[2]                  lx ly                  c_moy_sigma_comp[1] c_moy_sigma_comp[2] c_moy_sigma_comp[4]
    #dump		 compression_img all image 100000 compression.*.jpg type type     #             zoom 1.6 adiam 4.0
    #dump_modify	 compression_img pad 5

	#dump         compression all movie 500 compression.avi type type     #             zoom 1.6 adiam 4.0 # crée une vidéo de la compression
	#dump_modify  compression pad 5

## Fin de la compression ------------------------------------------------------------------------------------------------------ ##

	run	        500000 #  500 000  pas de simulations effectués
  update every 1 steps, delay 0 steps, check yes
Step Atoms c_moy_voisin Density Press KinEng c_u_moy_comp[1] c_u_moy_comp[2] Lx Ly c_moy_sigma_comp[1] c_moy_sigma_comp[2] c_moy_sigma_comp[4]
1500000      829    2.2002413    0.8124944    34.667618  0.010724403            0            0          100          100    -398.8776   -437.47291   0.60127101
Averages over the last 51 of 101 rows, steps 1750000 to 2000000:
Atoms c_moy_voisin Density Press KinEng c_u_moy_comp[1] c_u_moy_comp[2] Lx Ly c_moy_sigma_comp[1] c_moy_sigma_comp[2] c_moy_sigma_comp[4]
829 3.84077 0.842669 5000 1.11752e-07 7.78113e-05 0.0567157 98.1933 98.1933 -59005.6 -57302.3 461.52
Loop time of 222.578 on 1 procs for 500000 steps with 829 atoms

## Fin du programme ----------------------------------------------------------------------------------------------------------- ##

print " "

print "## Relaxation de l'echantillon ------------------------------------------------------------------------------- ##"
## Relaxation de l'echantillon ------------------------------------------------------------------------------- ##
print " "

# Unfix
    unfix       2Dsimu
    unfix       temp_cste # annule le thermostat à la fin du dépot des grains
    unfix       comp_biax # termine la compression bixiale de l'échantillon
    unfix       calcul_v_m
    unfix       sur_amortissement

# Uncompute - efface un calcul pour pouvoir appeler la fonction plus tard
    uncompute   voisin
    uncompute   moy_voisin

# Undump - arrête les affichages
    #undump      compression
    #undump      compression_img

# Relaxation de l'échantillon
    include     in.floes_relaxation_v1.lmp # seconde relaxation l'échantillon après compression
### Relaxation des matériaux granulaires ###

## Relaxation de l'échantillon ------------------------------------------------------------------------------------------------ ##

    # Début de simulation
    timestep    1E-4 # Pas de temps de la simulation

    fix         temp_cste all temp/berendsen 0.0 0.0 200 # définie une température constante durant la simulation
    fix         relaxation all press/berendsen                 iso 0 0 500 # relaxation de l'échantillon

    fix         sur_amortissement all viscous 1.0 # ajout d'une force visqueuse dans l'échantillon

    fix         calcul_v_m all nve/sphere disc # calcul vélocité et moment angulaire de chaque sphère

	fix         2Dsimu all enforce2d # assure une simulation 2D en annulant les forces/vitesse dans la direction z

    ## Calculs ----------------------------------------------------------------------------------------------------------------------- ##

    # Calcul des contraintes dans les floes
    compute     sigma_relax all stress/atom NULL virial # calcul les contraintes dans les floes
    compute     moy_sigma_relax all reduce sum c_sigma_relax[*] # somme le tenseur de contrainte sur l'ensemble des floes

    # Calcul des voisins
    compute      voisin all contact/atom # calcul les voisins situé à d = dmin du centre d'un grain
    compute      moy_voisin all reduce ave c_voisin # moyenne du nombres de voisins

    # Déplacement des grains
    compute      u_relax all displace/atom
    compute      u_moy_relax all reduce ave c_u_relax[*][*]

## Affichage ------------------------------------------------------------------------------------------------------------------- ##

    thermo      5000 # affichage tout les 5 000 pas de temps

    thermo_style custom step atoms c_moy_voisin                  density press ke c_u_moy_relax[1] c_u_moy_relax[2]                  lx ly                  c_moy_sigma_relax[1] c_moy_sigma_relax[2] c_moy_sigma_relax[4]     # affiche : pas de temps/nbr atomes/z/densité/pression/nrj cin/ux/uy/longueur boite/largeur boite/pxx/pyy/pxy

    #dump		 relaxation_img all image 100000 relaxation.*.jpg type type     #             zoom 1.6 adiam 4.0
    #dump_modify	 relaxation_img pad 5

	#dump         relaxation all movie 500 relaxation.avi type type     #             zoom 1.6 adiam 4.0 # crée une vidéo de la relaxation
    #dump_modify relaxation pad 5

## Fin de la relaxation -------------------------------------------------------------------------------------------------------- ##

	run	        500000 #  500000  pas de simulations effectués
  update every 1 steps, delay 0 steps, check yes
Step Atoms c_moy_voisin Density Press KinEng c_u_moy_relax[1] c_u_moy_relax[2] Lx Ly c_moy_sigma_relax[1] c_moy_sigma_relax[2] c_moy_sigma_relax[4]
2000000      829     3.840772   0.84266853         5000 4.9621775e-09            0            0    98.193287    98.193287   -59005.765   -57302.096    461.59376
Averages over the last 51 of 101 rows, steps 2250000 to 2500000:
Atoms c_moy_voisin Density Press KinEng c_u_moy_relax[1] c_u_moy_relax[2] Lx Ly c_moy_sigma_relax[1] c_moy_sigma_relax[2] c_moy_sigma_relax[4]
829 0.0990563 0.842281 4.61163e-05 8.01364e-08 2.38423e-05 -0.000182494 98.2159 98.2159 -0.000508164 -0.000564908 -1.23729e-05
Loop time of 86.7195 on 1 procs for 500000 steps with 829 atoms

#fin du programme

print " "

print "## Cisaillement de l'echantillon ----------------------------------------------------------------------------- ##"
## Cisaillement de l'echantillon ----------------------------------------------------------------------------- ##
print " "

# Unfix
    unfix       2Dsimu
    unfix       temp_cste
    unfix       relaxation # arrête la relaxation de l'échantillon
    unfix       calcul_v_m

# Uncompute - efface un calcul pour pouvoir appeler la fonction plus tard
    uncompute   voisin
    uncompute   moy_voisin

# Undump - arrête les affichages
    #undump      relaxation

    include     in.floes_shearing_v1.lmp # cisaille l'échantillon a vitesse constante et sous force constante
### Compression unixial de matériaux granulaires ###

## Création des groupes ------------------------------------------------------------------------------------------------------- ##

# Calcul du diamètre des grains
    # Ce bloc s'assure que la valeur calcul est bien actualisée
    compute      dgrain all property/atom diameter # calcul le diamètre des grains -> output = scalaire / grain
    compute      scal_dgrain all reduce ave c_dgrain # calcul du diamètre moyen des particules
    thermo_style custom step pxx pyy pxy c_scal_dgrain # modification de l'affichage
    run          0
  update every 1 steps, delay 0 steps, check yes
Step Pxx Pyy Pxy c_scal_dgrain
2500000 2.4453203e-06 1.9397288e-06 7.7962061e-08    3.4969843
Loop time of 1.90735e-06 on 1 procs for 0 steps with 829 atoms

# Stockage des grains par groupe de taille
    variable     d_min atom "c_dgrain == 3.0"
    group        dgrain_min variable d_min # place tout les grains d = dmin dans ce groupe
417 atoms in group dgrain_min
    variable     d_max atom "c_dgrain == 4.0"
    group        dgrain_max variable d_max # place tout les grains d = dmax dans ce groupe
412 atoms in group dgrain_max

# Création des bords
    # Crée les groupes des limites supérieur et inférieur celon Oy
    group        limite_yh region limite_sup
56 atoms in group limite_yh
    group        limite_yb region limite_inf
43 atoms in group limite_yb
    group        limite_y union limite_yb limite_yh
99 atoms in group limite_y

    # Crée le groupe des floes cisaillés
    group        floes subtract all limite_y
730 atoms in group floes

    # Crée le groupe par taille de grains
    group        dfloes_min subtract floes dgrain_max
366 atoms in group dfloes_min
    group        dfloes_max subtract floes dgrain_min
364 atoms in group dfloes_max

## Modification de la simulation ------------------------------------------------------------------------------------------------ ##

# Affichage du bord rigide d'une couleur différente
    set          group limite_y type 2
Setting atom values ...
  99 settings made for type

# Modification des conditions aux limites
    change_box   all boundary p s p remap units box # changement conditions aux limites et modification agencement grain
Changing box ...
    set          group all image NULL NULL NULL # repositionne les grains avec les nouvelles conditions aux limites
Setting atom values ...
  829 settings made for image

## Ajout de la friction grain/grain grain/mur mur/grain ------------------------------------------------------------------------- ##

    pair_style   gran/hooke/history 2E7 1E7 2E4 2E4 0.5 0 # contact Hookien entre particule sans friction
    pair_coeff	 * *

    # Definition des contacts paroi/grains
    fix          paroiy floes wall/gran hooke/history 2E7 1E7 2E4 2E4 0.5 0                  yplane 0 NULL

## Création des variables ------------------------------------------------------------------------------------------------------- ##

    variable     vx_piston equal vcm(limite_yh,x) # crée une variable de controle de la vitesse pour la simulation
    variable     cisaillement equal 1 # vitesse de cisaillement imposée
    variable     relax_force loop 500 # relaxation tous les 500 pas de simulation
    variable     force_comp equal -50 # compression de l echantillon par F = -100
    variable     nvforce_comp equal v_force_comp # creation de la variable nv_force pour la boucle de controle de la pression appliquee
    variable     comp_floes equal 1E3 # pression desiree pour l assemblage de grains

## Cisaillement de l'échantillon ------------------------------------------------------------------------------------------------ ##

    # Force appliqué sur le système
    fix          sur_amortissement all viscous 1.0 # ajout d'une force visqueuse dans l'échantillon
    fix          paroie_sup limite_yh setforce 0.0 0.0 0.0 # fixe la paroie supérieur en prenant fx = fy = fz = 0.0
    fix          paroie_inf limite_yb setforce 0.0 0.0 0.0 # fixe la paroie inferieur en prenant fx = fy = fz = 0

    # Début de simulation
    timestep     1E-5 # Pas de temps de la simulation

    fix          temp_cste floes temp/berendsen 0.0 0.0 100 # définie une température constante durant la simulation

    # Definition du cisaillement par vitesse contante imposée sur la limite supérieur v = v_cisaillement
    velocity     limite_yh set v_cisaillement NULL NULL sum no units box

    # Force appliquée sur le système
    #fix          compression limite_yh addforce 0.0 v_force_comp 0.0
    #variable     force_comp equal -5E-1

    # Boucle de controle de la pression de compression
    compute      sxx_grain limite_yh stress/atom NULL virial # calcul de la pression appliqué
    compute      sxx limite_yh reduce sum c_sxx_grain[*]
    variable     pression equal c_sxx[1]
    thermo_style custom step c_sxx[1] c_sxx[2] c_sxx[4] # modification de l'affichage
    run 0
Step c_sxx[1] c_sxx[2] c_sxx[4]
2500000            0            0            0
Loop time of 1.90735e-06 on 1 procs for 0 steps with 829 atoms

    # boucle de controle ajustant la force appliquée par rapport à la contrainte cible
variable nvforce_comp equal -50*1.2
variable force_comp equal v_nvforce_comp
    fix          compression limite_yh addforce 0.0 v_force_comp 0.0

    fix          piston limite_yh rigid single # crée une couche de grain rigide
  1 rigid bodies with 56 atoms

    fix          calcul_v_m floes nve/sphere disc # calcul vélocité et moment angulaire de chaque sphère

    fix          2Dsimu all enforce2d # assure une simulation 2D en annulant les forces/vitesse dans la direction z

## Calculs ----------------------------------------------------------------------------------------------------------------------- ##

    # Calcul des voisins
    compute      voisin floes contact/atom # calcul les voisins situé à d = dmin du centre d'un grain
    compute      moy_voisin floes reduce ave c_voisin # moyenne du nombres de voisins

    # Calcul des contraintes du bord rigide supérieur
    compute      sigma limite_yh stress/atom NULL virial # calcul les contraintes sur le bord rigide cisaillant
    compute      moy_sigma limite_yh reduce sum c_sigma[*] # somme le tenseur de contrainte sur l'ensemble des atome du bord rigide

    # Calcul des contraintes dans les floes
    compute      sigma_floes floes stress/atom NULL virial # calcul les contraintes dans les floes
    compute      moy_sigma_floes floes reduce sum c_sigma_floes[*] # somme le tenseur de contrainte sur l'ensemble des floes

    # Déplacement des grains et des bords rigides
    compute      u_bordsup limite_yh displace/atom
    compute      u_bordinf limite_yb displace/atom
    compute      u_floes floes displace/atom

    compute      u_moy_bordsup limite_yh reduce ave c_u_bordsup[*][*]
    compute      u_moy_bordinf limite_yb reduce ave c_u_bordinf[*][*]
    compute      u_moy_floes floes reduce ave c_u_floes[*][*]

## Commande-d'affichage ---------------------------------------------------------------------------------------------------------- ##

    thermo       1000 # affichage tout les 1000 pas de temps

    # affichage des données du probleme
    thermo_style custom                  step atoms temp press                  c_moy_voisin density                  lx ly                  c_moy_sigma_floes[1] c_moy_sigma_floes[2] c_moy_sigma_floes[4]                  c_moy_sigma[1] c_moy_sigma[2] c_moy_sigma[4]                  c_u_moy_bordsup[1] c_u_moy_bordsup[2]                  c_u_moy_bordinf[1] c_u_moy_bordinf[2]                  c_u_moy_floes[1] c_u_moy_floes[2]

    # Sorties graphiques
    dump		 cisaillement_img all image 10000 cisaillement.*.jpg type type                  zoom 1.6 adiam 4.0
    dump_modify	 cisaillement_img pad 5

    #dump         evo_voisin floes custom 1000 voisin.txt id c_voisin # affiche le nombre de voisin / grain dans un fichier texte pour d = dmin

	#dump         shearing all movie 500 shearing.avi type type     #             zoom 1.6 adiam 4.0 # crée une vidéo du cisaillement
	#dump_modify  shearing pad 5

## Fin du cisaillement ------------------------------------------------------------------------------------------------------------ ##

	run          250000 #  250 000 pas de simulations effectués
  update every 1 steps, delay 0 steps, check yes
Step Atoms Temp Press c_moy_voisin Density Lx Ly c_moy_sigma_floes[1] c_moy_sigma_floes[2] c_moy_sigma_floes[4] c_moy_sigma[1] c_moy_sigma[2] c_moy_sigma[4] c_u_moy_bordsup[1] c_u_moy_bordsup[2] c_u_moy_bordinf[1] c_u_moy_bordinf[2] c_u_moy_floes[1] c_u_moy_floes[2]
2500000      829   0.35029496    16.770073            0    0.8426318    98.215904    98.174956            0            0            0  0.096758237     -389.582   -220.80133            0            0            0            0            0            0
Averages over the last 126 of 251 rows, steps 2625000 to 2750000:
Atoms Temp Press c_moy_voisin Density Lx Ly c_moy_sigma_floes[1] c_moy_sigma_floes[2] c_moy_sigma_floes[4] c_moy_sigma[1] c_moy_sigma[2] c_moy_sigma[4] c_u_moy_bordsup[1] c_u_moy_bordsup[2] c_u_moy_bordinf[1] c_u_moy_bordinf[2] c_u_moy_floes[1] c_u_moy_floes[2]
829 54594.2 2132.27 1.26509 0.245427 98.2159 366.193 -28978.4 -35621.9 -305.626 6439.78 -142.711 -2473.38 2.62031 -11.2485 0 0 44.7674 53.7993
Loop time of 144.387 on 1 procs for 250000 steps with 829 atoms

#fin du programme

#fin du programme
