LAMMPS (29 Oct 2020)
print " "

print "### Simulation de milieux granulaire ###"
### Simulation de milieux granulaire ###
print " "

print "## Initialisation -------------------------------------------------------------------------------------------- ##"
## Initialisation -------------------------------------------------------------------------------------------- ##
print " "

    include in.floes_initialisation.lmp # initialise la simulation
## Paramètre de simulations -------------------------------------------------------------------------------------------------- ##

    # paramètres de simulation
	dimension    2 # Probleme 2D
    boundary     p fm p # Condition aux limites, f condition fixe, p condition périodique

	atom_style   sphere 0 # Les particules seront des sphères (besoin de definir diamètre et masse pour chaque particule)
	newton       off # off = pas d'action/réaction
	comm_modify  vel yes

    # géométrie
	region boite block 0 100 0 100 -0.5 0.5 units box # Crée la région "boite" 100x100x1
    box tilt large
	create_box   2 boite # Crée la "boite" avec 3 type de grains
Created orthogonal box = (0.0000000 0.0000000 -0.5) to (100.00000 100.00000 0.5)

	neighbor     0.2 bin # Fréquence de mise a jour de la liste des particules
	neigh_modify delay 0 #Fréquence de mise a jour de la liste des particules tout les 0 pas

    # région de l'échantillon
    region limite_sup    block INF INF 93 INF INF INF # crée une région pour la limite supérieur échantillon (cf : in.floes_shearing.lmp)
    region limite_inf    block INF INF INF 7 INF INF # crée une région pour la limite inferieur échantillon (cf : in.floes_shearing.lmp)
    region zone_de_chute block 0 100 89 100 -0.5 0.5 units box # crée une région depuis laquelle les grains vont tomber

    # Variable du problème
    variable nbr_grain equal 809
    variable dmax equal 4.0
    variable dmin equal 3.0

## Fin initilisation----------------------------------------------------------------------------------------------------------- ##

print " "

print "## Depot des grains ------------------------------------------------------------------------------------------ ##"
## Depot des grains ------------------------------------------------------------------------------------------ ##
print " "

    include     in.floes_pour.lmp # dépose des sphères dans la boite de simulation
### Depot de matériaux granulaire en 2D ###

## Definition interaction entre particules ------------------------------------------------------------------------------------ ##
# arg : contact normal, contact tangentiel, amortissement normal, amortissement tangentiel, coefficient de charge, 0 pour exclure gamma_t
	pair_style  gran/hooke/history 1E5 0.0 1E3 0.0 0.5 0 # contact Hookien entre particule sans friction
	pair_coeff	* *

## Simulation de la chute des grains ------------------------------------------------------------------------------------------ ##

    fix	gravite all gravity 1.0 spherical 0.0 -180.0 # ajoute la gravitée à la simulation

    timestep    1E-4 # pas de temps de la simulation

    fix         calcul_v_m all nve/sphere disc # Calcul la vélocité et le moment angulaire de chaque sphère

# Ajout de reaction normal sur la paroi paroie_y et plan_y
    fix	        paroiy all wall/gran hooke/history 2E7 0.0 1E4 0.0 0.5 0                 yplane 0 NULL

# Fait tomber N grains un par un, vol specifie la fraction volumique (max 0.6), one d unique / range d dans un intervale
    fix         depot all pour 860 1 100 vol 0.5 10                 diam poly 2 3.0 0.5 4.0 0.5 region zone_de_chute
Particle insertion: 56 every 46904 steps, 860 by step 703561

    fix         2Dsimu all enforce2d # Assure une simulation 2D en annulantles forces/vitesse dans la direction z

## Commande d'affichage -------------------------------------------------------------------------------------------------------- ##

    #dump		depot_img all image 500000 depot.*.jpg type type     #            zoom 1.6 adiam 4.0
    #dump_modify	depot_img pad 5

    #dump        depot_grain all movie 500 depot_grain.avi type type     #            zoom 1.6 adiam 4.0 # crée une vidéo du dépot des grains
    #dump_modify depot_grain pad 5

## Fin du dépot des particules -------------------------------------------------------------------------------------------------- ##

    run	        1500000 # 1 500 000 pas de simulations effectués
  update every 1 steps, delay 0 steps, check yes
Step Temp E_pair E_mol TotEng Press Volume
0            0            0            0            0            0        10000
Loop time of 138.489 on 1 procs for 1500000 steps with 830 atoms

#fin du programme

    set         group all density/disc 1.0 # densité des particules = 1 (longueur^3)
Setting atom values ...
  830 settings made for density/disc

# Enleve les affichages en cours
    #undump      depot_img
    #undump      depot_grain

print " "

print "## Compression echantillon ----------------------------------------------------------------------------------- ##"
## Compression echantillon ----------------------------------------------------------------------------------- ##
print " "

# Unfix - retire les propriétés fixés dans le module précedent pour en fixer de nouvelles dans le module suivant
    unfix       2Dsimu
    unfix       paroiy # enlève les propriétés mécanique des paroies
    unfix       depot # annule le dépot des grains dmin
    unfix       gravite # annule l'effet de la gravité
    unfix       calcul_v_m # annule l'intégration temporel des grains

# Compression de l'assemblage granulaire
    include     in.floes_compression_force.lmp # compression uniaxial de l'échantillon par application de force
### Compression unixial de matériaux granulaires ###

## Modification des conditions aux limites ------------------------------------------------------------------------------------ ##

    change_box  all boundary p p p units box # change les conditions limites pour comprimer l'échantillon avec un barostat
Changing box ...
    set         group all image NULL NULL NULL  # repositionne les grains avec les nouvelles conditions limites
Setting atom values ...
  830 settings made for image

## Fix pour compression unixial ----------------------------------------------------------------------------------------------- ##

    # Début de simulation
    timestep    1E-4 # pas de temps de la simulation

    fix         temp_cste all temp/berendsen 300.0 300.0 200 # définie une température constante durant la simulation
    fix         calcul_v_m all nve/sphere disc # calcul vélocité et moment angulaire de chaque sphère

    fix         sur_amortissement all viscous 1.0 # ajout d'une force visqueuse dans l'échantillon

    fix         comp_biax all press/berendsen                 iso 5E3 5E3 500 # compression biaxiale échantillon via un barostat p = 100.0

    fix         2Dsimu all enforce2d # Assure une simulation 2D en annulant les forces/vitesse dans la direction z

## Calculs -------------------------------------------------------------------------------------------------------------------- ##

    #Calcul des contraintes dans les floes
    compute     sigma_comp all stress/atom NULL virial # calcul les contraintes dans les floes
    compute     moy_sigma_comp all reduce sum c_sigma_comp[*] # somme le tenseur de contrainte sur l'ensemble des floes

    # Calcul des voisins
    compute      voisin all contact/atom # calcul les voisins situé à d = dmin du centre d'un grain
    compute      moy_voisin all reduce ave c_voisin # moyenne du nombres de voisins

    # Déplacement des grains et des bords rigides
    compute      u_comp all displace/atom
    compute      u_moy_comp all reduce ave c_u_comp[*][*]

## Affichage ------------------------------------------------------------------------------------------------------------------- ##

    # affichage : pas_de_temps/température_échantillon/ID_grain/nbre_voisin/nrj_total_échantillon/pression_appliquée/contrainte xx,xy,yy
    thermo      5000 # affichage tout les 50 000 pas de temps
    thermo_style custom step atoms c_moy_voisin                  density press c_u_moy_comp[1] c_u_moy_comp[2]                  lx ly                  c_moy_sigma_comp[1] c_moy_sigma_comp[2] c_moy_sigma_comp[4]
    #dump		 compression_img all image 100000 compression.*.jpg type type     #             zoom 1.6 adiam 4.0
    #dump_modify	 compression_img pad 5

	#dump         compression all movie 500 compression.avi type type     #             zoom 1.6 adiam 4.0 # crée une vidéo de la compression
	#dump_modify  compression pad 5

## Fin de la compression ------------------------------------------------------------------------------------------------------ ##

	run	        500000 #  500 000  pas de simulations effectués
  update every 1 steps, delay 0 steps, check yes
Step Atoms c_moy_voisin Density Press c_u_moy_comp[1] c_u_moy_comp[2] Lx Ly c_moy_sigma_comp[1] c_moy_sigma_comp[2] c_moy_sigma_comp[4]
1500000      830    4.0216867   0.81265148    87.010631            0            0          100          100   -1000.5077   -1096.1251  -0.80076665
Averages over the last 51 of 101 rows, steps 1750000 to 2000000:
Atoms c_moy_voisin Density Press c_u_moy_comp[1] c_u_moy_comp[2] Lx Ly c_moy_sigma_comp[1] c_moy_sigma_comp[2] c_moy_sigma_comp[4]
830 5.09398 0.930761 5000 -8.20638 -36.7293 93.4401 93.4401 -52928.4 -52250.6 -1112.91
Loop time of 94.7485 on 1 procs for 500000 steps with 830 atoms

## Fin du programme ----------------------------------------------------------------------------------------------------------- ##

# Enleve les affichages en cours
    #undump      compression_img
    #undump      compression

print " "

print "## Relaxation de l'echantillon ------------------------------------------------------------------------------- ##"
## Relaxation de l'echantillon ------------------------------------------------------------------------------- ##
print " "

# Unfix
    unfix       2Dsimu
    unfix       temp_cste # annule le thermostat à la fin du dépot des grains
    unfix       comp_biax # termine la compression bixiale de l'échantillon
    unfix       calcul_v_m
    unfix       sur_amortissement #supprime le fix ajoutant une viscosité

# Uncompute - efface un calcul pour pouvoir appeler la fonction plus tard
    uncompute   voisin
    uncompute   moy_voisin

# Relaxation de l'échantillon
    include     in.floes_relaxation.lmp # seconde relaxation l'échantillon après compression
### Relaxation des matériaux granulaires ###

## Relaxation de l'échantillon ------------------------------------------------------------------------------------------------ ##

    # Début de simulation
    timestep    1E-4 # Pas de temps de la simulation

    #minimize 0.0 0.0 500000 10000

    fix         temp_cste all temp/berendsen 300.0 300.0 200 # définie une température constante durant la simulation
    fix         sur_amortissement all viscous 1.0 # ajout d'une force visqueuse dans l'échantillon

    fix         relaxation all press/berendsen                 iso 0 0 500 # relaxation de l'échantillon

    fix         calcul_v_m all nve/sphere disc # calcul vélocité et moment angulaire de chaque sphère

	fix         2Dsimu all enforce2d # assure une simulation 2D en annulant les forces/vitesse dans la direction z

    ## Calculs ----------------------------------------------------------------------------------------------------------------------- ##

    # Calcul des contraintes dans les floes
    compute      sigma_relax all stress/atom NULL virial # calcul les contraintes dans les floes
    compute      moy_sigma_relax all reduce sum c_sigma_relax[*] # somme le tenseur de contrainte sur l'ensemble des floes

    # Calcul des voisins
    compute      voisin all contact/atom # calcul les voisins situé à d = dmin du centre d'un grain
    compute      moy_voisin all reduce ave c_voisin # moyenne du nombres de voisins

    # Energie cinétique des grains
    #compute      nrj_cin all ke

    # Déplacement des grains
    compute      u_relax all displace/atom
    compute      u_moy_relax all reduce ave c_u_relax[*][*]

## Affichage ------------------------------------------------------------------------------------------------------------------- ##

    # affichage : pas_de_temps/température_échantillon/ID_grain/nbre_voisin/nrj_total_échantillon/pression_appliquée/contrainte xx,xy,yy
    thermo      5000 # affichage tout les 50 000 pas de temps

    thermo_style custom step atoms c_moy_voisin                  density press c_u_moy_relax[1] c_u_moy_relax[2]                  lx ly ke                  c_moy_sigma_relax[1] c_moy_sigma_relax[2] c_moy_sigma_relax[4]
    #dump		 relaxation_img all image 100000 relaxation.*.jpg type type     #             zoom 1.6 adiam 4.0
    #dump_modify	 relaxation_img pad 5

	#dump         relaxation all movie 500 relaxation.avi type type     #             zoom 1.6 adiam 4.0 # crée une vidéo de la relaxation
    #dump_modify relaxation pad 5

## Fin de la relaxation -------------------------------------------------------------------------------------------------------- ##

	run	        500000 #  500 000  pas de simulations effectués
  update every 1 steps, delay 0 steps, check yes
Step Atoms c_moy_voisin Density Press c_u_moy_relax[1] c_u_moy_relax[2] Lx Ly KinEng c_moy_sigma_relax[1] c_moy_sigma_relax[2] c_moy_sigma_relax[4]
2000000      830    5.0939759   0.93076094         5000 -5.3504724e-18 2.140189e-18    93.440056    93.440056    7.1587996   -52928.424    -52250.56   -1112.9134
Averages over the last 51 of 101 rows, steps 2250000 to 2500000:
Atoms c_moy_voisin Density Press c_u_moy_relax[1] c_u_moy_relax[2] Lx Ly KinEng c_moy_sigma_relax[1] c_moy_sigma_relax[2] c_moy_sigma_relax[4]
830 1.80966 0.838033 0.927022 -10.51 -46.9743 98.474 98.474 7.16511 -3.60145 -3.72941 -0.0537804
Loop time of 62.0958 on 1 procs for 500000 steps with 830 atoms

#fin du programme

# Enleve les affichages en cours
    #undump      relaxation_img
    #undump      relaxation

print " "

print "## Cisaillement de l'echantillon ----------------------------------------------------------------------------- ##"
## Cisaillement de l'echantillon ----------------------------------------------------------------------------- ##
print " "

# Unfix
    unfix       2Dsimu
    unfix       temp_cste
    unfix       relaxation # arrête la relaxation de l'échantillon
    unfix       calcul_v_m
    unfix       sur_amortissement

# Uncompute - efface un calcul pour pouvoir appeler la fonction plus tard
    uncompute   voisin
    uncompute   moy_voisin

    include     in.floes_shearing.lmp # cisaille l'échantillon a vitesse constante et sous force constante
### Compression unixial de matériaux granulaires ###

## Modification de la simulation ------------------------------------------------------------------------------------------------ ##

# Modification des conditions aux limites
    change_box   all triclinic # changement de type de boite de simulation
Changing box ...
  triclinic box = (0.72595959 0.72595959 -0.5) to (99.274040 99.274040 0.5) with tilt (0.0000000 0.0000000 0.0000000)
    set          group all image NULL NULL NULL # repositionne les grains avec les nouvelles conditions aux limites
Setting atom values ...
  830 settings made for image

## Ajout de la friction grain/grain grain/mur mur/grain ------------------------------------------------------------------------- ##

    pair_style   gran/hooke/history 2E7 1E7 1E4 1E4 0.5 0 # contact Hookien entre particule sans friction
    pair_coeff	 * *

## Création des groupes ------------------------------------------------------------------------------------------------------- ##

# Calcul du diamètre des grains

    # Ce bloc s'assure que la valeur calcul est bien actualisée
    compute      dgrain all property/atom diameter # calcul le diamètre des grains -> output = scalaire / grain
    compute      scal_dgrain all reduce ave c_dgrain # calcul du diamètre moyen des particules
    thermo_style custom step pxx pyy pxy c_scal_dgrain # modification de l'affichage
    run          0
  update every 1 steps, delay 0 steps, check yes
Step Pxx Pyy Pxy c_scal_dgrain
2500000    20.673233    22.458128  0.017456553    3.4951807
Loop time of 9.53674e-07 on 1 procs for 0 steps with 830 atoms

# Stockage des grains par groupe de taille
    variable     d_min atom "c_dgrain == 3.0"
    group        dgrain_min variable d_min # place tout les grains d = dmin dans ce groupe
419 atoms in group dgrain_min
    variable     d_max atom "c_dgrain == 4.0"
    group        dgrain_max variable d_max # place tout les grains d = dmax dans ce groupe
411 atoms in group dgrain_max

    # Crée le groupe par taille de grains
    group        dfloes_min subtract all dgrain_max
419 atoms in group dfloes_min
    group        dfloes_max subtract all dgrain_min
411 atoms in group dfloes_max

## Cisaillement de l'échantillon ------------------------------------------------------------------------------------------------ ##

    # Début de simulation
    timestep     1E-5 # Pas de temps de la simulation

    fix          temp_cste all temp/berendsen 0.0 0.0 200 # définie une température constante durant la simulation

    fix          sur_amortissement all viscous 1 # ajout d'une force visqueuse dans l'échantillon

    # Definition du cisaillement par vitesse contante imposée par inclinaison de la boite de cisaillement et compression unixiale
    fix          cisaillement all deform 1 xy erate 0.01 remap v units box
    fix          comp_floes all nph/sphere                  y 1E6 1E6 10 disc
                 #couple none disc

    fix          calcul_v_m all nve/sphere disc # calcul vélocité et moment angulaire de chaque sphère

    fix          2Dsimu all enforce2d # assure une simulation 2D en annulant les forces/vitesse dans la direction z

## Calculs ----------------------------------------------------------------------------------------------------------------------- ##

    # Calcul des voisins
    compute      voisin all contact/atom # calcul les voisins situé à d = dmin du centre d'un grain
    compute      moy_voisin all reduce ave c_voisin # moyenne du nombres de voisins

    # Calcul des contraintes du système
    compute      sigma all stress/atom NULL virial # calcul les contraintes cisaillantes
    compute      moy_sigma all reduce sum c_sigma[*] # somme le tenseur de contrainte sur l'ensemble des atomes

    # Déplacement des grains
    compute      u_floes all displace/atom
    compute      u_moy_floes all reduce ave c_u_floes[*][*]

## Commande-d'affichage ---------------------------------------------------------------------------------------------------------- ##

    thermo       1000 # affichage tout les 1000 pas de temps

    # affichage des données du probleme
    thermo_style custom                  step atoms temp press                  c_moy_voisin density                  lx ly                  c_moy_sigma[1] c_moy_sigma[2] c_moy_sigma[4]                  c_u_moy_floes[1] c_u_moy_floes[2]

    # Sorties graphiques
    dump		 cisaillement_img all image 100000 cisaillement.*.jpg type type                  zoom 1.6 adiam 4.0
    dump_modify	 cisaillement_img pad 5

    #dump         evo_voisin all custom 1000 voisin.txt id c_voisin # affiche le nombre de voisin / grain dans un fichier texte pour d = dmin

    #dump         shearing all movie 500 shearing.avi type type     #             zoom 1.2 adiam 4.0 # crée une vidéo du cisaillement
	#dump_modify  shearing pad 5

## Fin du cisaillement ------------------------------------------------------------------------------------------------------------ ##

	run          1000000 #  1 000 000 pas de simulations effectués
  update every 1 steps, delay 0 steps, check yes
Step Atoms Temp Press c_moy_voisin Density Lx Ly c_moy_sigma[1] c_moy_sigma[2] c_moy_sigma[4] c_u_moy_floes[1] c_u_moy_floes[2]
2500000      830    7.1733055    24.197854    1.6650602   0.83677364    98.548081    98.548081   -385.52699   -166.41569    525.66046            0            0
Averages over the last 501 of 1001 rows, steps 3000000 to 3500000:
Atoms Temp Press c_moy_voisin Density Lx Ly c_moy_sigma[1] c_moy_sigma[2] c_moy_sigma[4] c_u_moy_floes[1] c_u_moy_floes[2]
830 0.567567 816776 4.39839 0.906551 98.5481 90.9629 -6.84247e+06 -1.08003e+07 2.7019e+06 -10.5197 -0.78108
Loop time of 227.891 on 1 procs for 1000000 steps with 830 atoms

#fin du programme

#fin du programme
